examples/test_perturbation_outputs/pert_min_loss/pglib_opf_case9241_pegase.m
%% MATPOWER Case Format : Version 2
function mpc = pglib_opf_case9241_pegase
mpc.version = '2';

%%-----  Power Flow Data  -----%%
%% system MVA base
mpc.baseMVA = 100.0;
%% bus data
%    bus_i    type    Pd    Qd    Gs    Bs    area    Vm    Va    baseKV    zone    Vmax    Vmin
mpc.bus = [
	1	1	378.4	98.5	0.0	16.61	0	1.0	0.0	220.0	6	1.1	0.9				
	2	2	0.0	0.0	0.0	0.0	0	1.0	0.0	154.0	1	1.1	0.9				
	3	1	151.0	48.8	0.0	4.69	0	1.0	0.0	220.0	5	1.1	0.9				
	4	1	171.41	23.4	0.0	2.1	0	1.0	0.0	220.0	5	1.1	0.9				
	5	1	45.95	14.000000000000002	0.0	13.34	0	1.0	0.0	220.0	6	1.1	0.9				
	6	2	0.0	0.0	0.0	0.0	0	1.0	0.0	380.0	6	1.1	0.9				
	7	1	31.03	10.3	0.0	0.65	0	1.0	0.0	110.0	21	1.1	0.9				
	8	2	0.0	0.0	0.0	0.0	0	1.0	0.0	154.0	1	1.1	0.9				
	9	1	14.3	2.0	0.0	1.91	0	1.0	0.0	154.0	1	1.1	0.9				
	10	1	134.0	24.7	0.0	12.44	0	1.0	0.0	220.0	5	1.1	0.9				
	11	1	0.0	0.0	0.0	0.0	0	1.0	0.0	150.0	9	1.1	0.9				
	12	1	-6.11	2.0	0.0	0.4699999999999999	0	1.0	0.0	150.0	9	1.1	0.9				
	13	1	-22.74	-8.32	0.0	6.5	0	1.0	0.0	220.0	6	1.1	0.9				
	14	1	13.5	14.800000000000002	0.0	132.435168	0	1.0	0.0	380.0	9	1.3	0.7				
	15	1	59.67	26.700000000000003	0.0	12.839999999999998	0	1.0	0.0	220.0	4	1.1	0.9				
	16	1	30.599999999999998	4.3	0.0	5.15	0	1.0	0.0	154.0	1	1.1	0.9				
	17	1	67.68	12.1	0.0	2.18	0	1.0	0.0	220.0	3	1.1	0.9				
	18	2	0.0	0.0	0.0	0.0	0	1.0	0.0	380.0	3	1.1	0.9				
	19	1	25.33	7.5	0.0	2.39	0	1.0	0.0	110.0	12	1.1	0.9				
	20	1	1.4	0.2	0.0	4.93	0	1.0	0.0	154.0	1	1.1	0.9				
	21	1	161.2	39.3	0.0	30.709999999999997	0	1.0	0.0	220.0	5	1.1	0.9				
	22	1	0.0	0.0	0.0	0.8500000000000001	0	1.0	0.0	220.0	5	1.1	0.9				
	23	1	19.62	7.1	0.0	1.15	0	1.0	0.0	110.0	19	1.1	0.9				
	24	1	17.22	5.7	0.0	1.22	0	1.0	0.0	110.0	21	1.1	0.9				
	25	2	0.0	0.0	0.0	0.0	0	1.0	0.0	220.0	3	1.1	0.9				
	26	1	167.3	54.79999999999999	0.0	110.54000000000002	0	1.0	0.0	380.0	5	1.1	0.9				
	27	1	0.0	0.0	0.0	14.82	0	1.0	0.0	380.0	13	1.1	0.9				
	28	1	0.0	0.0	0.0	0.0	0	1.0	0.0	150.0	9	1.1	0.9				
	29	1	152.9	49.4	0.0	27.65	0	1.0	0.0	380.0	5	1.1	0.9				
	30	1	0.0	0.0	0.0	0.56	0	1.0	0.0	150.0	9	1.1	0.9				
	31	1	69.68	43.2	0.0	6.3	0	1.0	0.0	150.0	9	1.3	0.7				
	32	2	0.0	0.0	0.0	0.0	0	1.0	0.0	220.0	4	1.1	0.9				
	33	2	0.0	0.0	0.0	0.0	0	1.0	0.0	220.0	4	1.1	0.9				
	34	1	13.52	4.9	0.0	1.8000000000000003	0	1.0	0.0	110.0	19	1.1	0.9				
	35	1	10.51	3.5000000000000004	0.0	0.31	0	1.0	0.0	110.0	12	1.1	0.9				
	36	1	0.0	0.0	0.12	15.340000000000002	0	1.0	0.0	220.0	19	1.1	0.9				
	37	1	9.21	2.6	0.0	2.0	0	1.0	0.0	110.0	18	1.1	0.9				
	38	1	42.75	12.8	0.0	13.3	0	1.0	0.0	220.0	8	1.1	0.9				
	39	2	0.0	0.0	0.0	0.0	0	1.0	0.0	150.0	10	1.1	0.9				
	40	1	16.02	4.54	0.0	0.1	0	1.0	0.0	110.0	23	1.1	0.9				
	41	1	27.9	4.0	0.0	4.23	0	1.0	0.0	154.0	1	1.1	0.9				
	42	1	20.82	7.9	0.0	26.890000000000004	0	1.0	0.0	380.0	4	1.1	0.9				
	43	1	12.6	1.8000000000000003	0.0	2.03	0	1.0	0.0	154.0	1	1.1	0.9				
	44	1	0.0	0.0	0.0	7.2700000000000005	0	1.0	0.0	220.0	5	1.1	0.9				
	45	1	10.11	3.7000000000000006	0.0	0.8100000000000002	0	1.0	0.0	110.0	19	1.1	0.9				
	46	1	10.01	2.7	0.0	1.14	0	1.0	0.0	110.0	18	1.1	0.9				
	47	1	6.309999999999999	0.0	0.0	0.67	0	1.0	0.0	110.0	18	1.1	0.9				
	48	1	2.9	0.9000000000000001	0.0	0.6	0	1.0	0.0	110.0	15	1.1	0.9				
	49	2	0.0	0.0	0.0	0.0	0	1.0	0.0	220.0	6	1.1	0.9				
	50	1	48.8	6.9	0.0	8.71	0	1.0	0.0	154.0	1	1.1	0.9				
	51	2	0.0	0.0	0.0	0.0	0	1.0	0.0	220.0	4	1.1	0.9				
	52	1	127.60000000000001	31.8	0.0	20.51	0	1.0	0.0	150.0	8	1.1	0.9				
	53	1	48.65	16.1	0.0	7.139999999999999	0	1.0	0.0	220.0	5	1.1	0.9				
	54	1	110.5	-26.8	0.0	16.37	0	1.0	0.0	220.0	6	1.1	0.9				
	55	1	0.0	0.0	0.0	1.23	0	1.0	0.0	220.0	3	1.1	0.9				
	56	1	140.0	79.7	0.0	6.5	0	1.0	0.0	220.0	3	1.1	0.9				
	57	1	21.6	3.0	0.0	3.54	0	1.0	0.0	154.0	1	1.1	0.9				
	58	1	0.0	0.0	0.0	2.31	0	1.0	0.0	380.0	5	1.1	0.9				
	59	1	119.19999999999999	20.7	0.0	3.3099999999999996	0	1.0	0.0	220.0	5	1.1	0.9				
	60	1	0.24	-1.66	0.0	0.65	0	1.0	0.0	110.0	18	1.1	0.9				
	61	1	0.0	0.0	0.0	58.57	0	1.0	0.0	380.0	3	1.1	0.9				
	62	1	0.0	0.0	0.0	1.34	0	1.0	0.0	110.0	18	1.1	0.9				
	63	1	187.9	110.2	0.0	21.25	0	1.0	0.0	380.0	3	1.1	0.9				
	64	1	14.92	5.5	0.0	1.31	0	1.0	0.0	110.0	15	1.1	0.9				
	65	1	-18.52	6.1	0.0	0.79	0	1.0	0.0	150.0	9	1.1	0.9				
	66	1	4.61	1.7000000000000002	0.0	2.32	0	1.0	0.0	110.0	19	1.1	0.9				
	67	1	0.0	0.0	0.09950100000000002	82.133595	0	1.0	0.0	380.0	18	1.1	0.9				
	68	1	10.81	5.1	0.0	1.09	0	1.0	0.0	110.0	18	1.1	0.9				
	69	1	62.86999999999999	20.5	0.0	1.15	0	1.0	0.0	150.0	8	1.1	0.9				
	70	1	0.0	0.0	0.0	2.64	0	1.0	0.0	154.0	1	1.1	0.9				
	71	1	126.29999999999998	42.4	0.0	55.24	0	1.0	0.0	150.0	8	1.1	0.9				
	72	1	6.909999999999999	-4.6	0.0	5.75	0	1.0	0.0	220.0	4	1.1	0.9				
	73	1	15.72	5.2	0.0	0.11	0	1.0	0.0	110.0	12	1.1	0.9				
	74	1	0.0	0.0	0.0	0.0	0	1.0	0.0	150.0	9	1.1	0.9				
	75	1	38.74	6.1	0.0	1.17	0	1.0	0.0	220.0	4	1.1	0.9				
	76	1	22.13	10.7	0.0	14.21	0	1.0	0.0	220.0	8	1.1	0.9				
	77	1	0.0	0.0	0.0	0.73	0	1.0	0.0	220.0	4	1.1	0.9				
	78	1	0.0	0.0	0.0	0.83	0	1.0	0.0	110.0	18	1.1	0.9				
	79	1	138.8	136.7	0.0	8.76	0	1.0	0.0	380.0	3	1.1	0.9				
	80	2	0.0	0.0	0.0	0.0	0	1.0	0.0	220.0	23	1.1	0.9				
	81	1	67.76	19.18	0.0	1.47	0	1.0	0.0	150.0	1	1.1	0.9				
	82	1	22.02	5.1	0.0	0.69	0	1.0	0.0	110.0	1	1.1	0.9				
	83	1	0.0	0.0	0.0	6.619999999999999	0	1.0	0.0	220.0	3	1.1	0.9				
	84	1	1.0	0.3	0.0	0.19	0	1.0	0.0	110.0	19	1.1	0.9				
	85	1	20.9	3.0	0.0	5.74	0	1.0	0.0	154.0	1	1.1	0.9				
	86	1	0.0	0.0	0.0	0.12	0	1.0	0.0	150.0	9	1.1	0.9				
	87	1	21.52	5.1	0.0	0.5	0	1.0	0.0	110.0	18	1.1	0.9				
	88	1	71.98	28.800000000000004	0.0	11.0	0	1.0	0.0	220.0	6	1.1	0.9				
	89	1	0.0	0.0	0.19911099999999998	4.530599	0	1.0	0.0	380.0	2	1.1	0.9				
	90	1	363.25	115.38999999999999	0.0	3.95	0	1.0	0.0	220.0	5	1.1	0.9				
	91	1	0.0	0.0	0.0	0.02	0	1.0	0.0	150.0	8	1.1	0.9				
	92	1	192.9	73.3	0.0	20.75	0	1.0	0.0	380.0	3	1.1	0.9				
	93	1	17.52	6.3	0.0	0.26	0	1.0	0.0	110.0	19	1.1	0.9				
	94	1	33.14	12.0	0.0	0.65	0	1.0	0.0	110.0	19	1.1	0.9				
	95	1	40.45	25.0	0.0	9.82	0	1.0	0.0	150.0	9	1.1	0.9				
	96	1	193.17	53.37	0.0	4.58	0	1.0	0.0	220.0	5	1.1	0.9				
	97	1	0.0	0.0	0.0	9.38	0	1.0	0.0	380.0	1	1.1	0.9				
	98	1	90.7	25.5	0.0	3.11	0	1.0	0.0	220.0	3	1.1	0.9				
	99	1	176.3	-58.9	0.0	24.77	0	1.0	0.0	380.0	6	1.1	0.9				
	100	1	35.94	22.3	0.0	0.0	0	1.0	0.0	150.0	9	1.1	0.9				
	101	1	0.0	0.0	0.0	0.29	0	1.0	0.0	150.0	9	1.1	0.9				
	102	1	0.0	0.0	0.0	3.7699999999999996	0	1.0	0.0	220.0	6	1.1	0.9				
	103	1	65.07	40.3	0.0	5.43	0	1.0	0.0	150.0	9	1.1	0.9				
	104	1	51.35999999999999	-8.8	0.0	2.15	0	1.0	0.0	220.0	6	1.1	0.9				
	105	1	0.0	0.0	0.0	82.55	0	1.0	0.0	380.0	6	1.1	0.9				
	106	1	0.0	0.0	0.0	31.19	0	1.0	0.0	380.0	23	1.3	0.7				
	107	2	0.0	0.0	0.0	0.0	0	1.0	0.0	380.0	3	1.3	0.7				
	108	1	3.8	1.3	0.0	0.4	0	1.0	0.0	110.0	18	1.1	0.9				
	109	1	137.0	19.5	0.0	4.9	0	1.0	0.0	154.0	1	1.1	0.9				
	110	1	0.0	0.0	0.0	0.0	0	1.0	0.0	150.0	9	1.1	0.9				
	111	1	61.07	36.0	0.0	3.09	0	1.0	0.0	220.0	11	1.1	0.9				
	112	1	0.0	0.0	0.0	3.2400000000000007	0	1.0	0.0	220.0	3	1.1	0.9				
	113	1	0.0	0.0	0.0	6.532710999999999	0	1.0	0.0	380.0	5	1.1	0.9				
	114	1	55.7	7.9	0.0	4.21	0	1.0	0.0	154.0	1	1.1	0.9				
	115	1	0.0	0.0	0.0	4.21	0	1.0	0.0	220.0	5	1.1	0.9				
	116	1	1.8000000000000003	0.7	0.0	0.3	0	1.0	0.0	110.0	19	1.1	0.9				
	117	1	40.04	16.0	0.0	0.52	0	1.0	0.0	110.0	18	1.1	0.9				
	118	1	0.0	0.0	0.0	36.562834	0	1.0	0.0	380.0	5	1.1	0.9				
	119	1	0.0	0.0	0.0	0.09	0	1.0	0.0	150.0	9	1.1	0.9				
	120	1	140.6	20.1	0.0	13.81	0	1.0	0.0	154.0	1	1.1	0.9				
	121	1	45.15	14.099999999999998	0.0	0.19	0	1.0	0.0	110.0	15	1.1	0.9				
	122	1	0.0	0.0	0.0	5.75	0	1.0	0.0	220.0	3	1.1	0.9				
	123	2	0.0	0.0	0.0	0.0	0	1.0	0.0	220.0	11	1.1	0.9				
	124	2	0.0	0.0	0.0	0.0	0	1.0	0.0	220.0	5	1.1	0.9				
	125	1	3.42	2.68	0.0	1.46	0	1.0	0.0	110.0	18	1.1	0.9				
	126	1	0.0	0.0	0.0	2.64	0	1.0	0.0	154.0	1	1.1	0.9				
	127	1	0.0	0.0	0.0	4.3	0	1.0	0.0	220.0	6	1.1	0.9				
	128	1	23.73	12.7	0.0	0.52	0	1.0	0.0	220.0	5	1.1	0.9				
	129	1	121.9	7.400000000000001	0.0	1.34	0	1.0	0.0	220.0	3	1.1	0.9				
	130	1	0.0	0.0	0.135375	47.750675	0	1.0	0.0	380.0	10	1.1	0.9				
	131	1	47.35	16.4	0.0	4.08	0	1.0	0.0	110.0	22	1.1	0.9				
	132	1	0.0	0.0	0.0	21.39	0	1.0	0.0	380.0	1	1.1	0.9				
	133	1	38.14	12.5	0.0	6.280000000000001	0	1.0	0.0	150.0	8	1.1	0.9				
	134	1	54.2	7.8	0.0	94.9	0	1.0	0.0	400.0	1	1.1	0.9				
	135	1	130.6	84.9	0.0	4.22	0	1.0	0.0	220.0	7	1.1	0.9				
	136	1	7.91	2.6	0.0	0.74	0	1.0	0.0	110.0	12	1.1	0.9				
	137	1	42.1	74.61	0.0	37.58	0	1.0	0.0	150.0	1	1.1	0.9				
	138	1	-75.38	7.8	0.0	29.9	0	1.0	0.0	380.0	10	1.1	0.9				
	139	1	0.0	0.0	0.0	36.92	0	1.0	0.0	380.0	8	1.1	0.9				
	140	1	0.0	0.0	0.0	4.14	0	1.0	0.0	220.0	8	1.1	0.9				
	141	2	0.0	0.0	0.0	0.0	0	1.0	0.0	220.0	13	1.1	0.9				
	142	2	0.0	0.0	0.0	0.0	0	1.0	0.0	220.0	6	1.1	0.9				
	143	1	0.0	0.0	0.0	0.0	0	1.0	0.0	150.0	8	1.1	0.9				
	144	1	0.0	0.0	0.0	98.53	0	1.0	0.0	380.0	14	1.1	0.9				
	145	1	38.34	5.6	0.0	7.64	0	1.0	0.0	220.0	5	1.1	0.9				
	146	1	269.6	65.7	0.0	0.0	0	1.0	0.0	120.0	20	1.3	0.7				
	147	2	0.0	0.0	0.0	0.0	0	1.0	0.0	220.0	7	1.1	0.9				
	148	1	32.34	12.0	0.0	6.1	0	1.0	0.0	220.0	5	1.1	0.9				
	149	1	100.1	45.1	0.0	1.11	0	1.0	0.0	380.0	6	1.1	0.9				
	150	2	0.0	0.0	0.0	0.0	0	1.0	0.0	220.0	5	1.1	0.9				
	151	2	0.0	0.0	0.0	0.0	0	1.0	0.0	154.0	1	1.1	0.9				
	152	1	7.000000000000001	1.0	0.0	4.69	0	1.0	0.0	154.0	1	1.1	0.9				
	153	1	0.0	0.0	0.0	0.56	0	1.0	0.0	150.0	7	1.1	0.9				
	154	1	0.0	0.0	0.0	1.29	0	1.0	0.0	110.0	12	1.1	0.9				
	155	1	0.0	0.0	0.0	1.7000000000000002	0	1.0	0.0	110.0	21	1.1	0.9				
	156	1	40.34	25.0	0.0	1.14	0	1.0	0.0	150.0	9	1.1	0.9				
	157	1	9.21	3.3000000000000003	0.0	1.2	0	1.0	0.0	110.0	19	1.1	0.9				
	158	1	166.0	60.3	0.0	0.57	0	1.0	0.0	220.0	3	1.1	0.9				
	159	1	0.0	0.0	0.0	0.1	0	1.0	0.0	150.0	9	1.1	0.9				
	160	1	79.4	11.3	0.0	4.92	0	1.0	0.0	154.0	1	1.1	0.9				
	161	1	0.0	0.0	0.0	0.16	0	1.0	0.0	150.0	9	1.1	0.9				
	162	1	0.0	0.0	0.0	66.65	0	1.0	0.0	380.0	6	1.1	0.9				
	163	1	147.76	32.73	0.0	8.34	0	1.0	0.0	220.0	5	1.1	0.9				
	164	1	0.0	0.0	0.0	5.17	0	1.0	0.0	150.0	8	1.1	0.9				
	165	1	26.8	-3.7000000000000006	0.0	51.261677999999996	0	1.0	0.0	380.0	9	1.1	0.9				
	166	2	0.0	0.0	0.0	0.0	0	1.0	0.0	220.0	3	1.1	0.9				
	167	1	257.5	131.1	0.0	1.08	0	1.0	0.0	220.0	3	1.1	0.9				
	168	1	16.7	2.4	0.0	6.09	0	1.0	0.0	154.0	1	1.1	0.9				
	169	1	0.0	0.0	0.0	1.91	0	1.0	0.0	150.0	9	1.1	0.9				
	170	1	0.0	0.0	0.0	2.35	0	1.0	0.0	220.0	1	1.1	0.9				
	171	1	100.8	13.200000000000001	0.0	5.24	0	1.0	0.0	220.0	5	1.1	0.9				
	172	1	111.7	10.96	0.0	4.22	0	1.0	0.0	220.0	4	1.1	0.9				
	173	1	90.38	-5.05	0.0	8.49	0	1.0	0.0	220.0	13	1.1	0.9				
	174	1	370.5	-17.0	0.0	9.91	0	1.0	0.0	220.0	5	1.1	0.9				
	175	1	9.91	3.2	0.0	0.67	0	1.0	0.0	110.0	12	1.1	0.9				
	176	1	-0.69	-5.46	0.0	5.07	0	1.0	0.0	150.0	9	1.1	0.9				
	177	1	94.9	36.2	0.0	16.46	0	1.0	0.0	220.0	10	1.1	0.9				
	178	1	81.09	48.0	0.0	0.03	0	1.0	0.0	150.0	9	1.1	0.9				
	179	2	0.0	0.0	0.0	0.0	0	1.0	0.0	380.0	4	1.1	0.9				
	180	1	0.0	0.0	0.0	0.54	0	1.0	0.0	110.0	21	1.1	0.9				
	181	1	54.96	16.9	0.0	3.37	0	1.0	0.0	110.0	22	1.1	0.9				
	182	1	19.32	26.0	0.0	0.69	0	1.0	0.0	220.0	3	1.1	0.9				
	183	1	0.0	0.0	0.0	1.83	0	1.0	0.0	150.0	9	1.1	0.9				
	184	1	0.0	0.0	0.0	2.42	0	1.0	0.0	220.0	5	1.1	0.9				
	185	1	20.9	3.0	0.0	4.11	0	1.0	0.0	154.0	1	1.1	0.9				
	186	1	19.92	6.6000000000000005	0.0	0.56	0	1.0	0.0	110.0	21	1.1	0.9				
	187	1	57.16	2.0	0.0	1.48	0	1.0	0.0	110.0	22	1.1	0.9				
	188	1	36.84	13.900000000000002	0.0	3.3000000000000003	0	1.0	0.0	220.0	5	1.1	0.9				
	189	1	-15.039999999999997	-5.12	0.0	0.43	0	1.0	0.0	110.0	18	1.1	0.9				
	190	2	0.0	0.0	0.0	0.0	0	1.0	0.0	110.0	19	1.1	0.9				
	191	1	0.0	0.0	0.0	14.19	0	1.0	0.0	220.0	6	1.1	0.9				
	192	2	0.0	0.0	0.0	0.0	0	1.0	0.0	380.0	3	1.1	0.9				
	193	1	119.9	3.7000000000000006	0.0	3.3300000000000005	0	1.0	0.0	220.0	3	1.1	0.9				
	194	2	0.0	0.0	0.0	0.0	0	1.0	0.0	150.0	8	1.1	0.9				
	195	1	73.14	21.55	0.0	8.52	0	1.0	0.0	220.0	5	1.1	0.9				
	196	1	0.0	0.0	0.0	12.48	0	1.0	0.0	220.0	5	1.1	0.9				
	197	2	0.0	0.0	0.0	0.0	0	1.0	0.0	380.0	3	1.1	0.9				
	198	1	39.74	11.8	0.0	1.44	0	1.0	0.0	220.0	5	1.1	0.9				
	199	1	86.8	28.4	0.0	1.34	0	1.0	0.0	150.0	8	1.1	0.9				
	200	1	22.42	2.1	0.0	0.19	0	1.0	0.0	150.0	1	1.1	0.9				
...
];

%% generator data
%    bus    Pg    Qg    Qmax    Qmin    Vg    mBase    status    Pmax    Pmin    Pc1    Pc2    Qc1min    Qc1max    Qc2min    Qc2max    ramp_agc    ramp_10    ramp_30    ramp_q    apf
mpc.gen = [
	2	-4.265	10.87	42.19	-20.45	1.0	100.0	1	100.0	-108.52999999999999															
	6	800.0	156.48	524.53	-211.57	1.0	100.0	1	1200.0	400.0															
	8	262.34	2.74	251.73000000000002	-246.25	1.0	100.0	1	524.68	0.0															
	18	333.335	59.74499999999999	212.97000000000003	-93.48	1.0	100.0	1	500.0	166.67															
	25	200.0	56.61000000000001	179.43	-66.21	1.0	100.0	1	400.0	0.0															
	32	8.1	0.675	5.91	-4.56	1.0	100.0	1	16.2	0.0															
	33	2.69	0.595	2.27	-1.08	1.0	100.0	1	5.38	0.0															
	39	20.0	5.31	17.76	-7.139999999999999	1.0	100.0	1	40.0	0.0															
	49	240.0	71.275	218.52	-75.97	1.0	100.0	1	480.0	0.0															
	51	-46.335	0.645	5.48	-4.19	1.0	100.0	1	100.0	-192.67															
	80	64.4	48.08	139.94	-43.78	1.0	100.0	1	100.0	28.800000000000004															
	107	400.0	70.03	253.85	-113.79000000000002	1.0	100.0	1	600.0	200.0															
	123	20.0	6.39	18.84	-6.06	1.0	100.0	1	40.0	0.0															
	124	666.665	133.865	440.32	-172.59	1.0	100.0	1	1000.0	333.33															
	141	1.2	6.13	18.59	-6.329999999999999	1.0	100.0	1	100.0	-97.6															
	142	90.0	22.875	78.15	-32.4	1.0	100.0	1	180.0	0.0															
	147	39.335	20.31	70.12	-29.5	1.0	100.0	1	100.0	-21.33															
	150	80.0	27.275	77.09	-22.54	1.0	100.0	1	160.0	0.0															
	151	-23.565	-10.105	37.97	-58.18	1.0	100.0	1	100.0	-147.13															
	166	150.0	35.57	127.66999999999999	-56.53	1.0	100.0	1	300.0	0.0															
	179	-69.465	0.45999999999999996	52.64	-51.72	1.0	100.0	1	100.0	-238.93															
	190	60.0	16.805	54.24	-20.63	1.0	100.0	1	120.0	0.0															
	192	100.0	30.315000000000005	91.61	-30.98	1.0	100.0	1	200.0	0.0															
	194	200.0	38.33	130.19	-53.53	1.0	100.0	1	300.0	100.0															
	197	150.0	32.175	123.89000000000001	-59.540000000000006	1.0	100.0	1	300.0	0.0															
	201	2.685	0.6	2.27	-1.07	1.0	100.0	1	5.37	0.0															
	209	20.0	6.265	18.7	-6.17	1.0	100.0	1	40.0	0.0															
	214	-66.8	69.555	192.0	-52.89	1.0	100.0	1	100.0	-233.6															
	219	1333.335	324.635	937.43	-288.16	1.0	100.0	1	2000.0	666.67															
	220	600.0	127.985	402.92	-146.95	1.0	100.0	1	900.0	300.0															
	221	266.665	59.31000000000001	183.92	-65.3	1.0	100.0	1	400.0	133.33															
	222	-48.2	3.4450000000000003	12.509999999999998	-5.62	1.0	100.0	1	100.0	-196.4															
	239	45.3	13.639999999999999	38.52	-11.24	1.0	100.0	1	100.0	-9.4															
	246	533.335	132.745	378.08	-112.59000000000002	1.0	100.0	1	800.0	266.67															
	248	-64.665	12.560000000000002	37.47	-12.35	1.0	100.0	1	100.0	-229.33000000000004															
	255	333.335	67.385	220.66	-85.89	1.0	100.0	1	500.0	166.67															
	262	-26.935	13.19	38.1	-11.72	1.0	100.0	1	100.0	-153.87															
	263	27.065	-0.95	5.05	-6.950000000000001	1.0	100.0	1	100.0	-45.87															
	278	7.264999999999999	12.805	37.7	-12.09	1.0	100.0	1	100.0	-85.47															
	282	1333.335	312.145	924.64	-300.35	1.0	100.0	1	2000.0	666.67															
	289	30.0	7.605	26.02	-10.81	1.0	100.0	1	60.0	0.0															
	294	320.0	11.89	45.1	-21.32	1.0	100.0	1	480.0	160.0															
	299	1066.665	231.27	721.25	-258.71	1.0	100.0	1	1600.0	533.33															
	309	50.0	11.95	42.62	-18.72	1.0	100.0	1	100.0	0.0															
	310	450.0	0.0	99999.0	-99999.0	1.0	100.0	1	700.0	200.0															
	313	5.04	-1.17	4.83	-7.17	1.0	100.0	1	10.08	0.0															
	320	1208.0	-261.96	320.04	-843.96	1.0	100.0	1	1812.0	604.0															
	324	100.0	34.015	95.32	-27.29	1.0	100.0	1	200.0	0.0															
	325	35.735	0.45999999999999996	1.9299999999999997	-1.01	1.0	100.0	1	100.0	-28.53															
	328	-1.9349999999999998	66.385	188.91	-56.14	1.0	100.0	1	100.0	-103.86999999999999															
	338	60.0	18.19	55.54	-19.16	1.0	100.0	1	120.0	0.0															
	347	26.71	-4.67	33.33	-42.67	1.0	100.0	1	53.42	0.0															
	348	120.0	36.835	110.57	-36.9	1.0	100.0	1	240.0	0.0															
	352	1333.335	314.335	926.35	-297.68	1.0	100.0	1	2000.0	666.67															
	361	266.665	63.94499999999999	186.39	-58.5	1.0	100.0	1	400.0	133.33															
	366	130.665	-29.15	61.970000000000006	-120.26999999999998	1.0	100.0	1	196.0	65.33															
	372	13.4	99.325	282.95	-84.3	1.0	100.0	1	100.0	-73.2															
	382	40.0	13.48	38.4	-11.44	1.0	100.0	1	80.0	0.0															
	389	60.0	19.445	56.72999999999999	-17.84	1.0	100.0	1	120.0	0.0															
	394	1866.665	367.045	1224.26	-490.17	1.0	100.0	1	2800.0	933.3300000000002															
	406	30.615	2.435	22.22	-17.35	1.0	100.0	1	61.23	0.0															
	409	8.665	-2.675	24.32	-29.67	1.0	100.0	1	100.0	-82.67															
	411	20.0	5.195	17.66	-7.2700000000000005	1.0	100.0	1	40.0	0.0															
	413	140.0	37.14	124.12	-49.84	1.0	100.0	1	280.0	0.0															
	423	37.2	1.31	5.22	-2.6	1.0	100.0	1	100.0	-25.6															
	424	466.6650000000001	89.45	304.38	-125.48000000000002	1.0	100.0	1	700.0	233.32999999999998															
	433	333.335	63.97999999999999	217.18	-89.22	1.0	100.0	1	500.0	166.67															
	434	48.135	-0.25	2.75	-3.25	1.0	100.0	1	100.0	-3.73															
	438	50.0	14.46	45.1	-16.18	1.0	100.0	1	100.0	0.0															
	439	200.0	52.97500000000001	175.16	-69.21	1.0	100.0	1	400.0	0.0															
	440	60.0	18.36	55.730000000000004	-19.01	1.0	100.0	1	120.0	0.0															
	442	23.1	0.51	1.95	-0.93	1.0	100.0	1	100.0	-53.79999999999999															
	447	20.0	4.4	16.84	-8.04	1.0	100.0	1	40.0	0.0															
	452	12.135	12.960000000000003	37.86	-11.94	1.0	100.0	1	100.0	-75.73															
	453	270.0	91.415	257.23	-74.4	1.0	100.0	1	540.0	0.0															
	456	31.28	2.495	44.8	-39.81	1.0	100.0	1	100.0	-37.44															
	484	150.0	40.78	132.41	-50.85000000000001	1.0	100.0	1	300.0	0.0															
	489	-21.6	0.73	6.280000000000001	-4.82	1.0	100.0	1	100.0	-143.2															
	491	100.0	33.23	94.56	-28.1	1.0	100.0	1	200.0	0.0															
	505	58.01500000000001	-10.495	37.34	-58.32999999999999	1.0	100.0	1	116.03000000000002	0.0															
	511	100.0	33.17	94.38	-28.04	1.0	100.0	1	200.0	0.0															
	515	450.0	22.63	72.5	-27.24	1.0	100.0	1	700.0	200.0															
	516	400.0	77.56	261.79	-106.67	1.0	100.0	1	600.0	200.0															
	518	-223.535	24.21	85.63	-37.21	1.0	100.0	1	100.0	-547.07															
	524	36.225	-6.460000000000001	30.15	-43.07	1.0	100.0	1	72.45	0.0															
	541	62.095	-9.69	7.8100000000000005	-27.190000000000005	1.0	100.0	1	124.19	0.0															
	564	15.555	-0.44	18.47	-19.35	1.0	100.0	1	100.0	-68.89															
	578	-23.535	7.435	25.88	-11.01	1.0	100.0	1	100.0	-147.07															
	583	-130.0	5.425	17.88	-7.03	1.0	100.0	1	100.0	-360.0															
	587	266.665	63.085	185.56	-59.39	1.0	100.0	1	400.0	133.33															
	590	183.565	135.115	380.31	-110.08	1.0	100.0	1	300.0	67.13															
	615	20.0	4.65	17.09	-7.79	1.0	100.0	1	40.0	0.0															
	616	320.0	68.37	217.90000000000003	-81.16	1.0	100.0	1	480.0	160.0															
	618	533.335	106.035	351.18	-139.11	1.0	100.0	1	800.0	266.67															
	628	90.0	23.55	78.79	-31.69	1.0	100.0	1	180.0	0.0															
	636	60.0	15.560000000000002	52.99	-21.87	1.0	100.0	1	120.0	0.0															
	637	11.16	1.38	11.2	-8.44	1.0	100.0	1	22.32	0.0															
	639	19.2	48.31	135.52	-38.9	1.0	100.0	1	100.0	-61.6															
	642	138.045	-1.45	90.13	-93.03	1.0	100.0	1	276.09	0.0															
	648	40.0	13.04	37.95	-11.87	1.0	100.0	1	80.0	0.0															
	672	102.905	4.2	71.32	-62.92	1.0	100.0	1	205.81	0.0															
	682	40.0	13.855	38.77	-11.06	1.0	100.0	1	80.0	0.0															
	686	35.57	0.245	34.75	-34.26	1.0	100.0	1	100.0	-28.859999999999996															
	692	266.665	59.69	182.17	-62.79	1.0	100.0	1	400.0	133.33															
	697	533.335	112.325	357.4	-132.75	1.0	100.0	1	800.0	266.67															
	698	200.0	38.015	129.94	-53.90999999999999	1.0	100.0	1	300.0	100.0															
	709	32.65	0.7	22.23	-20.83	1.0	100.0	1	65.3	0.0															
	711	59.265	131.69	377.01	-113.62999999999998	1.0	100.0	1	100.0	18.53															
	713	60.0	16.595	53.98	-20.79	1.0	100.0	1	120.0	0.0															
	714	533.335	131.14	376.36	-114.08	1.0	100.0	1	800.0	266.67															
	715	244.0	-56.765	66.42	-179.95	1.0	100.0	1	366.0	122.0															
	727	533.335	134.26	379.61	-111.09	1.0	100.0	1	800.0	266.67															
	728	37.14	-4.29	35.73	-44.31	1.0	100.0	1	74.28	0.0															
	735	89.25	-16.06	89.94	-122.06000000000002	1.0	100.0	1	178.5	0.0															
	738	172.995	6.355000000000001	107.86	-95.15	1.0	100.0	1	311.39	34.6															
	739	333.335	59.760000000000005	212.97000000000003	-93.45	1.0	100.0	1	500.0	166.67															
	749	120.0	30.925000000000004	105.69	-43.84	1.0	100.0	1	240.0	0.0															
	751	150.0	44.85	136.94	-47.24	1.0	100.0	1	300.0	0.0															
	757	60.0	13.944999999999999	51.300000000000004	-23.41	1.0	100.0	1	120.0	0.0															
	763	30.0	9.455	27.88	-8.97	1.0	100.0	1	60.0	0.0															
	764	266.665	51.525	174.17	-71.12	1.0	100.0	1	400.0	133.33															
	765	90.0	21.46	76.76	-33.84	1.0	100.0	1	180.0	0.0															
	774	70.56	10.415	81.57	-60.74	1.0	100.0	1	141.12	0.0															
	776	-24.265	5.715	18.16	-6.7299999999999995	1.0	100.0	1	100.0	-148.53															
	778	16.79	1.505	12.37	-9.36	1.0	100.0	1	33.58	0.0															
	779	22.5	4.88	17.34	-7.580000000000001	1.0	100.0	1	45.0	0.0															
	780	40.0	12.555	37.43	-12.32	1.0	100.0	1	80.0	0.0															
	791	800.0	200.075	567.63	-167.48	1.0	100.0	1	1200.0	400.0															
	795	40.0	11.855	36.75	-13.04	1.0	100.0	1	80.0	0.0															
	796	40.0	14.13	39.0	-10.74	1.0	100.0	1	80.0	0.0															
	803	-9.465	24.245	74.03	-25.540000000000003	1.0	100.0	1	100.0	-118.93															
	807	1333.335	251.75	864.47	-360.97	1.0	100.0	1	2000.0	666.67															
	813	401.335	9.075	309.08	-290.93	1.0	100.0	1	602.0	200.67															
	823	1333.335	314.185	926.68	-298.31	1.0	100.0	1	2000.0	666.67															
	828	29.350000000000005	-0.78	20.87	-22.43	1.0	100.0	1	58.70000000000001	0.0															
	831	60.0	18.205	55.59	-19.18	1.0	100.0	1	120.0	0.0															
	832	400.0	80.94	264.71	-102.83	1.0	100.0	1	600.0	200.0															
	837	30.0	8.765	27.190000000000005	-9.66	1.0	100.0	1	60.0	0.0															
	844	60.0	16.94	54.35	-20.47	1.0	100.0	1	120.0	0.0															
	848	51.345	5.755	49.63	-38.12	1.0	100.0	1	100.0	2.69															
	849	8.785	0.77	6.45	-4.91	1.0	100.0	1	17.57	0.0															
	851	100.0	34.415	96.64	-27.810000000000002	1.0	100.0	1	200.0	0.0															
	858	666.665	134.26	440.66999999999996	-172.15	1.0	100.0	1	1000.0	333.33															
	861	60.0	20.65	57.98	-16.68	1.0	100.0	1	120.0	0.0															
	875	333.335	74.985	228.16	-78.19	1.0	100.0	1	500.0	166.67															
	888	200.0	46.665	138.6	-45.27	1.0	100.0	1	300.0	100.0															
	891	1600.0	361.75	1097.41	-373.91	1.0	100.0	1	2400.0	800.0															
	894	160.0	42.095	141.93	-57.74	1.0	100.0	1	320.0	0.0															
	896	48.2	-1.4	8.6	-11.4	1.0	100.0	1	100.0	-3.6000000000000005															
	913	1133.335	251.085	772.11	-269.94	1.0	100.0	1	1700.0	566.67															
	916	150.0	42.345	134.45	-49.76	1.0	100.0	1	300.0	0.0															
	917	20.0	5.745	18.22	-6.7299999999999995	1.0	100.0	1	40.0	0.0															
	926	314.665	56.58	201.12	-87.96	1.0	100.0	1	472.0	157.33															
	927	30.0	10.265	28.689999999999998	-8.16	1.0	100.0	1	60.0	0.0															
	930	600.0	130.955	406.66	-144.75	1.0	100.0	1	900.0	300.0															
	972	1333.335	321.605	934.73	-291.52	1.0	100.0	1	2000.0	666.67															
	974	60.0	17.075	54.36	-20.21	1.0	100.0	1	120.0	0.0															
	976	53.915	0.335	36.02	-35.35	1.0	100.0	1	107.83	0.0															
	978	7.575	1.72	6.43	-2.99	1.0	100.0	1	15.15	0.0															
	983	1333.335	335.545	948.3600000000001	-277.27	1.0	100.0	1	2000.0	666.67															
	984	1066.665	249.04500000000002	738.93	-240.83999999999997	1.0	100.0	1	1600.0	533.33															
	991	20.0	4.39	16.83	-8.05	1.0	100.0	1	40.0	0.0															
	992	30.0	7.55	25.97	-10.87	1.0	100.0	1	60.0	0.0															
	993	-41.265	5.39	17.85	-7.07	1.0	100.0	1	100.0	-182.53															
	1001	60.0	17.605	55.02	-19.81	1.0	100.0	1	120.0	0.0															
	1002	100.0	27.200000000000003	89.55	-35.15	1.0	100.0	1	200.0	0.0															
	1004	50.0	13.295000000000002	43.99	-17.4	1.0	100.0	1	100.0	0.0															
	1021	-69.535	21.055	58.34	-16.23	1.0	100.0	1	100.0	-239.07															
	1029	100.0	29.455	90.64	-31.730000000000004	1.0	100.0	1	200.0	0.0															
	1030	250.0	21.885	71.66	-27.889999999999997	1.0	100.0	1	400.0	100.0															
	1036	200.0	45.47	137.39	-46.45	1.0	100.0	1	300.0	100.0															
	1043	600.0	112.23999999999998	387.88	-163.4	1.0	100.0	1	900.0	300.0															
	1050	385.385	50.855	173.5	-71.79	1.0	100.0	1	518.72	252.05															
	1082	266.665	49.06	171.62	-73.5	1.0	100.0	1	400.0	133.33															
	1083	60.0	17.515	54.90999999999999	-19.88	1.0	100.0	1	120.0	0.0															
	1088	22.995	2.2	8.06	-3.66	1.0	100.0	1	45.99	0.0															
	1093	800.0	182.77	550.69	-185.15	1.0	100.0	1	1200.0	400.0															
	1097	9.19	-0.23499999999999996	6.17	-6.64	1.0	100.0	1	18.38	0.0															
	1098	133.335	30.09	91.42	-31.240000000000002	1.0	100.0	1	200.0	66.67															
	1100	40.0	11.895	36.8	-13.01	1.0	100.0	1	80.0	0.0															
	1102	-32.77	13.23	38.05	-11.59	1.0	100.0	1	100.0	-165.54															
	1103	533.335	132.0	376.66	-112.66000000000001	1.0	100.0	1	800.0	266.67															
	1117	576.0	-89.82	307.47	-487.11	1.0	100.0	1	864.0	288.0															
	1119	200.0	34.58	126.49	-57.330000000000005	1.0	100.0	1	300.0	100.0															
	1121	180.0	47.695	158.2	-62.81	1.0	100.0	1	360.0	0.0															
	1122	95.14	5.96	68.0	-56.08	1.0	100.0	1	190.28	0.0															
	1125	120.0	39.915	114.57	-34.74	1.0	100.0	1	240.0	0.0															
	1131	600.0	132.025	407.66	-143.61	1.0	100.0	1	900.0	300.0															
	1138	666.665	125.87000000000002	432.44	-180.7	1.0	100.0	1	1000.0	333.33															
	1139	120.0	33.195	107.89	-41.5	1.0	100.0	1	240.0	0.0															
	1145	245.12	4.415	153.07	-144.24	1.0	100.0	1	452.53	37.71															
	1173	-33.135	0.485	1.8500000000000003	-0.88	1.0	100.0	1	100.0	-166.27															
	1174	20.0	6.165	18.61	-6.280000000000001	1.0	100.0	1	40.0	0.0															
	1175	450.0	34.615	108.35	-39.12	1.0	100.0	1	700.0	200.0															
	1176	52.23	33.02	94.13	-28.09	1.0	100.0	1	100.0	4.46															
	1184	200.0	55.235	178.02	-67.55	1.0	100.0	1	400.0	0.0															
	1220	90.0	28.795000000000005	84.07	-26.479999999999997	1.0	100.0	1	180.0	0.0															
	1225	145.215	31.6	118.84000000000002	-55.64	1.0	100.0	1	290.43	0.0															
	1237	1333.335	293.585	906.61	-319.44	1.0	100.0	1	2000.0	666.67															
	1241	32.815	0.655	22.29	-20.98	1.0	100.0	1	65.63	0.0															
...
];

%% branch data
%    f_bus    t_bus    r    x    b    rateA    rateB    rateC    ratio    angle    status    angmin    angmax
mpc.branch = [
	5147	3097	0.0006	0.00616	0.0	823.0	5104.0	5104.0	0	0	1	-29.999999999999996	29.999999999999996								
	5147	8763	0.0005	0.0074	0.0	921.0000000000001	4259.0	4259.0	0	0	1	-29.999999999999996	29.999999999999996								
	2169	3124	0.00107	0.00626	0.0	476.0	4974.0	4974.0	0	0	1	-29.999999999999996	29.999999999999996								
	2169	3234	0.000841	0.0055	0.0	476.0	5678.0	5678.0	0	0	1	-29.999999999999996	29.999999999999996								
	3517	711	0.00143	0.01563	0.0	1645.0	2013.0	2013.0	0	0	1	-29.999999999999996	29.999999999999996								
	3517	4533	0.00146	0.01692	0.0	1711.0	2838.0	2838.0	0	0	1	-29.999999999999996	29.999999999999996								
	427	5425	7.0e-5	0.00057	0.0	1711.0	55004.0	55004.0	0	0	1	-29.999999999999996	29.999999999999996								
	427	4704	6.0e-5	0.00056	0.0	1514.0	56085.0	56085.0	0	0	1	-29.999999999999996	29.999999999999996								
	5960	7431	0.003349	0.01656	0.0	1870.0	1870.0	1870.0	0	0	1	-29.999999999999996	29.999999999999996								
	5960	3186	0.003409	0.016211	0.0	1907.0	1907.0	1907.0	0	0	1	-29.999999999999996	29.999999999999996								
	4481	7431	0.003479	0.01586	0.0	1946.0	1946.0	1946.0	0	0	1	-29.999999999999996	29.999999999999996								
	4481	3186	0.003099	0.017969	0.0	1732.9999999999998	1732.9999999999998	1732.9999999999998	0	0	1	-29.999999999999996	29.999999999999996								
	531	9203	0.00127	0.01842	0.0	823.0	1711.0	1711.0	0	0	1	-29.999999999999996	29.999999999999996								
	531	835	0.00126	0.01847	0.0	1547.0	1707.0	1707.0	0	0	1	-29.999999999999996	29.999999999999996								
	1656	118	0.0013	0.01808	0.0	1218.0	1743.0	1743.0	0	0	1	-29.999999999999996	29.999999999999996								
	1656	3449	0.00131	0.01765	0.0	1744.0000000000002	1785.0000000000002	1785.0000000000002	0	0	1	-29.999999999999996	29.999999999999996								
	5084	1809	0.00065	0.01311	0.0	2407.0	2407.0	2407.0	0	0	1	-29.999999999999996	29.999999999999996								
	5084	6398	0.00067	0.00974	0.0	2598.0	3236.0	3236.0	0	0	1	-29.999999999999996	29.999999999999996								
	5205	7833	0.00236	0.01418	0.0	553.0	2198.0	2198.0	0	0	1	-29.999999999999996	29.999999999999996								
	5205	7770	0.002169	0.015909	0.0	514.0	1968.0	1968.0	0	0	1	-29.999999999999996	29.999999999999996								
	354	1278	0.00027	0.00254	0.0	1349.0	12367.0	12367.0	0	0	1	-29.999999999999996	29.999999999999996								
	354	7617	0.00027	0.00259	0.0	1119.0	12131.0	12131.0	0	0	1	-29.999999999999996	29.999999999999996								
	2611	1278	0.00033	0.00302	0.0	1448.0	10398.0	10398.0	0	0	1	-29.999999999999996	29.999999999999996								
	2611	905	0.00029	0.00312	0.0	1613.0	10081.0	10081.0	0	0	1	-29.999999999999996	29.999999999999996								
	1842	6542	0.000289	0.00137	0.0	533.0	22560.0	22560.0	0	0	1	-29.999999999999996	29.999999999999996								
	1842	7622	0.000219	0.00263	0.0	11969.0	11969.0	11969.0	0	0	1	-29.999999999999996	29.999999999999996								
	2134	6542	0.000289	0.001341	0.0	457.0	23027.0	23027.0	0	0	1	-29.999999999999996	29.999999999999996								
	2134	8785	0.000229	0.00257	0.0	12243.0	12243.0	12243.0	0	0	1	-29.999999999999996	29.999999999999996								
	6613	6542	0.000841	0.00689	0.0	514.0	4551.0	4551.0	0	0	1	-29.999999999999996	29.999999999999996								
	6613	1651	0.000979	0.00586	0.0	495.0	5317.0	5317.0	0	0	1	-29.999999999999996	29.999999999999996								
	5773	6542	0.00014	0.0012	0.0	26145.999999999996	26145.999999999996	26145.999999999996	0	0	1	-29.999999999999996	29.999999999999996								
	5773	7840	0.000211	0.001539	0.0	20335.0	20335.0	20335.0	0	0	1	-29.999999999999996	29.999999999999996								
	5214	6542	0.000401	0.004901	0.0	6423.999999999999	6423.999999999999	6423.999999999999	0	0	1	-29.999999999999996	29.999999999999996								
	5214	7840	0.000219	0.00151	0.0	533.0	20703.0	20703.0	0	0	1	-29.999999999999996	29.999999999999996								
	8072	6542	0.000729	0.004539	0.0	495.0	6872.0	6872.0	0	0	1	-29.999999999999996	29.999999999999996								
	8072	2759	0.00062	0.00482	0.0	495.0	6500.0	6500.0	0	0	1	-29.999999999999996	29.999999999999996								
	2971	6069	0.00052	0.00407	0.0	1481.0	7698.999999999999	7698.999999999999	0	0	1	-29.999999999999996	29.999999999999996								
	2971	3445	0.00034	0.00502	0.0	1843.0	6278.0	6278.0	0	0	1	-29.999999999999996	29.999999999999996								
	7561	6069	0.00065	0.00698	0.0	1711.0	4506.0	4506.0	0	0	1	-29.999999999999996	29.999999999999996								
	7561	8825	0.00059	0.00806	0.0	1678.0	3909.0000000000005	3909.0000000000005	0	0	1	-29.999999999999996	29.999999999999996								
	6748	8864	0.00063	0.00464	0.0	495.0	6745.999999999999	6745.999999999999	0	0	1	-29.999999999999996	29.999999999999996								
	6748	5078	0.000599	0.005099	0.0	533.0	6153.0	6153.0	0	0	1	-29.999999999999996	29.999999999999996								
	4956	4785	0.00064	0.00307	0.0	10073.0	10073.0	10073.0	0	0	1	-29.999999999999996	29.999999999999996								
	4956	7667	0.000659	0.003	0.0	10284.0	10284.0	10284.0	0	0	1	-29.999999999999996	29.999999999999996								
	8619	6775	0.00053	0.00528	0.0	1086.0	5953.0	5953.0	0	0	1	-29.999999999999996	29.999999999999996								
	8619	8195	0.00056	0.0053	0.0	1283.0	5927.0	5927.0	0	0	1	-29.999999999999996	29.999999999999996								
	3107	4785	0.0018	0.007919	0.0	3890.0	3890.0	3890.0	0	0	1	-29.999999999999996	29.999999999999996								
	3107	7154	0.001651	0.00862	0.0	3600.0	3600.0	3600.0	0	0	1	-29.999999999999996	29.999999999999996								
	5437	6775	0.00045	0.00545	0.0	1382.0	5777.0	5777.0	0	0	1	-29.999999999999996	29.999999999999996								
	5437	905	0.00052	0.00476	0.0	1547.0	6597.0	6597.0	0	0	1	-29.999999999999996	29.999999999999996								
	2282	6876	0.01286	0.037421	0.0	799.0	799.0	799.0	0	0	1	-29.999999999999996	29.999999999999996								
	2282	5654	0.032397	0.123	0.0	249.00000000000003	249.00000000000003	249.00000000000003	0	0	1	-29.999999999999996	29.999999999999996								
	474	6876	0.032851	0.069727	0.0	409.99999999999994	409.99999999999994	409.99999999999994	0	0	1	-29.999999999999996	29.999999999999996								
	474	8045	0.059942	0.112802	0.0	248.0	248.0	248.0	0	0	1	-29.999999999999996	29.999999999999996								
	7917	7472	0.00011	0.00109	0.0	1086.0	28833.0	28833.0	0	0	1	-29.999999999999996	29.999999999999996								
	7917	8899	0.00011	0.00107	0.0	1185.0	29367.0	29367.0	0	0	1	-29.999999999999996	29.999999999999996								
	6225	7681	0.000461	0.00395	0.0	629.0	7943.000000000001	7943.000000000001	0	0	1	-29.999999999999996	29.999999999999996								
	6225	1508	0.000599	0.003789	0.0	591.0	8235.0	8235.0	0	0	1	-29.999999999999996	29.999999999999996								
	7118	6568	0.00173	0.01542	0.0	986.9999999999999	2844.0	2844.0	0	0	1	-29.999999999999996	29.999999999999996								
	7118	4346	0.00166	0.02083	0.0	1119.0	2112.0	2112.0	0	0	1	-29.999999999999996	29.999999999999996								
	3469	8850	0.006314	0.018488	0.0	1617.0000000000002	1617.0000000000002	1617.0000000000002	0	0	1	-29.999999999999996	29.999999999999996								
	3469	1997	0.015727	0.037669	0.0	774.0	774.0	774.0	0	0	1	-29.999999999999996	29.999999999999996								
	7556	7058	0.00374	0.02095	0.0	800.0	1485.0	1485.0	0	0	1	-29.999999999999996	29.999999999999996								
	7556	4324	0.00511	0.019461	0.0	800.0	1570.0	1570.0	0	0	1	-29.999999999999996	29.999999999999996								
	1069	2867	0.011281	0.050771	0.0	457.0	608.0	608.0	0	0	1	-29.999999999999996	29.999999999999996								
	1069	2588	0.0115	0.049719	0.0	438.0	619.0	619.0	0	0	1	-29.999999999999996	29.999999999999996								
	3945	2867	0.011719	0.048659	0.0	438.0	632.0	632.0	0	0	1	-29.999999999999996	29.999999999999996								
	3945	2588	0.01193	0.047599	0.0	438.0	644.0	644.0	0	0	1	-29.999999999999996	29.999999999999996								
	132	2962	0.00064	0.00715	0.0	1481.0	4401.0	4401.0	0	0	1	-29.999999999999996	29.999999999999996								
	132	4393	0.00089	0.00712	0.0	1283.0	4403.0	4403.0	0	0	1	-29.999999999999996	29.999999999999996								
	5044	693	0.00048	0.00555	0.0	986.9999999999999	5671.0	5671.0	0	0	1	-29.999999999999996	29.999999999999996								
	5044	7860	0.00047	0.00566	0.0	1086.0	5562.0	5562.0	0	0	1	-29.999999999999996	29.999999999999996								
	6883	693	0.00046	0.00524	0.0	1053.0	6006.0	6006.0	0	0	1	-29.999999999999996	29.999999999999996								
	6883	7860	0.00052	0.00514	0.0	1053.0	6115.0	6115.0	0	0	1	-29.999999999999996	29.999999999999996								
	1456	4503	0.00438	0.010686	0.0	2736.0	2736.0	2736.0	0	0	1	-29.999999999999996	29.999999999999996								
	1456	6658	0.031347	0.062653	0.0	451.0	451.0	451.0	0	0	1	-29.999999999999996	29.999999999999996								
	6494	4945	0.00029	0.00298	0.0	1613.0	10550.0	10550.0	0	0	1	-29.999999999999996	29.999999999999996								
	6494	6080	0.0003	0.00291	0.0	1514.0	10798.0	10798.0	0	0	1	-29.999999999999996	29.999999999999996								
	1384	9010	0.00155	0.01529	0.0	1185.0	3137.0	3137.0	0	0	1	-29.999999999999996	29.999999999999996								
	1384	3146	0.00148	0.0152	0.0	1283.0	2889.0	2889.0	0	0	1	-29.999999999999996	29.999999999999996								
	8697	8142	0.000169	0.00096	0.0	312.0	32406.0	32406.0	0	0	1	-29.999999999999996	29.999999999999996								
	8697	6195	0.000182	0.000942	0.0	312.0	32924.0	32924.0	0	0	1	-29.999999999999996	29.999999999999996								
	5665	424	0.00016	0.00184	0.0	17103.0	17103.0	17103.0	0	0	1	-29.999999999999996	29.999999999999996								
	5665	7235	0.00022	0.00287	0.0	10974.0	10974.0	10974.0	0	0	1	-29.999999999999996	29.999999999999996								
	3852	6497	0.00015	0.00187	0.0	16838.0	16838.0	16838.0	0	0	1	-29.999999999999996	29.999999999999996								
	3852	4779	0.00022	0.00266	0.0	11835.0	11835.0	11835.0	0	0	1	-29.999999999999996	29.999999999999996								
	674	8885	0.00138	0.0174	0.0	1316.0	2528.0	2528.0	0	0	1	-29.999999999999996	29.999999999999996								
	674	3115	0.00272	0.0288	0.0	1086.0	1667.0000000000002	1667.0000000000002	0	0	1	-29.999999999999996	29.999999999999996								
	8126	5177	0.00065	0.01024	0.0	1843.0	3079.0	3079.0	0	0	1	-29.999999999999996	29.999999999999996								
	8126	6007	0.00073	0.01004	0.0	1876.0000000000002	3138.0	3138.0	0	0	1	-29.999999999999996	29.999999999999996								
	8935	5177	0.00075	0.00983	0.0	1909.0	3204.9999999999995	3204.9999999999995	0	0	1	-29.999999999999996	29.999999999999996								
	8935	6007	0.00076	0.00963	0.0	1909.0	3270.0000000000005	3270.0000000000005	0	0	1	-29.999999999999996	29.999999999999996								
	7146	7388	0.00042	0.02666	0.0	1185.0	1185.0	1185.0	0	0	1	-29.999999999999996	29.999999999999996								
	4003	8855	0.00029	0.0026	0.0	12075.0	12075.0	12075.0	0	0	1	-29.999999999999996	29.999999999999996								
	4003	5781	0.00022	0.00303	0.0	1185.0	10398.0	10398.0	0	0	1	-29.999999999999996	29.999999999999996								
	6996	3761	0.001	0.006159	0.0	5063.0	5063.0	5063.0	0	0	1	-29.999999999999996	29.999999999999996								
	6996	9108	0.00113	0.00657	0.0	533.0	4739.0	4739.0	0	0	1	-29.999999999999996	29.999999999999996								
	1212	8258	0.0013	0.01277	0.0	1316.0	3438.0000000000005	3438.0000000000005	0	0	1	-29.999999999999996	29.999999999999996								
	1212	7330	0.00163	0.01808	0.0	1382.0	2431.0	2431.0	0	0	1	-29.999999999999996	29.999999999999996								
	8644	106	0.00047	0.00406	0.0	1316.0	10795.0	10795.0	0	0	1	-29.999999999999996	29.999999999999996								
	8644	5883	0.00235	0.02343	0.0	1316.0	1873.9999999999998	1873.9999999999998	0	0	1	-29.999999999999996	29.999999999999996								
	97	6413	0.00036	0.00445	0.0	1547.0	7076.000000000001	7076.000000000001	0	0	1	-29.999999999999996	29.999999999999996								
	97	1644	0.00017	0.0025	0.0	1909.0	12606.0	12606.0	0	0	1	-29.999999999999996	29.999999999999996								
	4379	6413	0.00036	0.00436	0.0	1580.0	7220.999999999999	7220.999999999999	0	0	1	-29.999999999999996	29.999999999999996								
	4379	3483	0.00017	0.00255	0.0	1810.0000000000002	12360.0	12360.0	0	0	1	-29.999999999999996	29.999999999999996								
	1885	3208	0.00096	0.00995	0.0	1349.0	3160.0	3160.0	0	0	1	-29.999999999999996	29.999999999999996								
	1885	6790	0.00152	0.01949	0.0	1382.0	1616.0	1616.0	0	0	1	-29.999999999999996	29.999999999999996								
	5314	3208	0.00094	0.01014	0.0	1251.0	3102.0	3102.0	0	0	1	-29.999999999999996	29.999999999999996								
	5314	6790	0.00149	0.01986	0.0	1415.0	1587.0	1587.0	0	0	1	-29.999999999999996	29.999999999999996								
	2885	3208	0.00107	0.01243	0.0	1152.0	2532.0	2532.0	0	0	1	-29.999999999999996	29.999999999999996								
	2885	2585	0.00102	0.01034	0.0	1218.0	4639.0	4639.0	0	0	1	-29.999999999999996	29.999999999999996								
	3717	4848	0.0047	0.02061	0.0	438.0	1495.0	1495.0	0	0	1	-29.999999999999996	29.999999999999996								
	3717	3688	0.00739	0.040531	0.0	400.0	767.0	767.0	0	0	1	-29.999999999999996	29.999999999999996								
	6064	8640	0.00049	0.00611	0.0	1942.0000000000002	7198.0	7198.0	0	0	1	-29.999999999999996	29.999999999999996								
	6064	7330	0.00035	0.00431	0.0	1547.0	10203.0	10203.0	0	0	1	-29.999999999999996	29.999999999999996								
	5377	1029	0.00261	0.01344	0.0	419.00000000000006	2308.0	2308.0	0	0	1	-29.999999999999996	29.999999999999996								
	5377	3525	0.003521	0.019591	0.0	419.00000000000006	1587.0	1587.0	0	0	1	-29.999999999999996	29.999999999999996								
	6870	3431	0.0025	0.01419	0.0	2193.0	2193.0	2193.0	0	0	1	-29.999999999999996	29.999999999999996								
	6870	5046	0.00287	0.0237	0.0	381.0	1324.0	1324.0	0	0	1	-29.999999999999996	29.999999999999996								
	6693	6743	0.00088	0.00956	0.0	1547.0	3290.9999999999995	3290.9999999999995	0	0	1	-29.999999999999996	29.999999999999996								
	6693	287	0.00095	0.00877	0.0	1382.0	3581.0	3581.0	0	0	1	-29.999999999999996	29.999999999999996								
	2053	752	0.00332	0.020651	0.0	457.0	1511.0	1511.0	0	0	1	-29.999999999999996	29.999999999999996								
	2053	3048	0.003969	0.018781	0.0	457.0	1646.0	1646.0	0	0	1	-29.999999999999996	29.999999999999996								
	2893	2738	0.002849	0.014909	0.0	438.0	2082.0	2082.0	0	0	1	-29.999999999999996	29.999999999999996								
	2893	1575	0.00439	0.02451	0.0	438.0	1269.0	1269.0	0	0	1	-29.999999999999996	29.999999999999996								
	1524	8687	0.0002	0.0018	0.0	17442.0	17442.0	17442.0	0	0	1	-29.999999999999996	29.999999999999996								
	1524	8393	0.00025	0.00261	0.0	12048.0	12048.0	12048.0	0	0	1	-29.999999999999996	29.999999999999996								
	7369	8687	0.0002	0.00176	0.0	17833.0	17833.0	17833.0	0	0	1	-29.999999999999996	29.999999999999996								
	7369	139	0.00025	0.00255	0.0	1909.0	12329.0	12329.0	0	0	1	-29.999999999999996	29.999999999999996								
	1019	6176	0.012488	0.047413	0.0	645.0	645.0	645.0	0	0	1	-29.999999999999996	29.999999999999996								
	1019	7177	0.010479	0.027711	0.0	1067.0	1067.0	1067.0	0	0	1	-29.999999999999996	29.999999999999996								
	2607	7458	0.00044	0.00428	0.0	1810.0000000000002	7342.0	7342.0	0	0	1	-29.999999999999996	29.999999999999996								
	2607	1337	0.00036	0.00475	0.0	6631.0	6631.0	6631.0	0	0	1	-29.999999999999996	29.999999999999996								
	4735	5239	0.00058	0.00534	0.0	1876.0000000000002	5881.0	5881.0	0	0	1	-29.999999999999996	29.999999999999996								
	4735	3145	0.00054	0.00589	0.0	1843.0	5341.0	5341.0	0	0	1	-29.999999999999996	29.999999999999996								
	2941	1429	0.00206	0.02057	0.0	1152.0	1528.0	1528.0	0	0	1	-29.999999999999996	29.999999999999996								
	2941	1542	0.00077	0.00872	0.0	953.9999999999999	3609.0000000000005	3609.0000000000005	0	0	1	-29.999999999999996	29.999999999999996								
	3773	9183	0.00161	0.01963	0.0	1349.0	1604.0	1604.0	0	0	1	-29.999999999999996	29.999999999999996								
	3773	1542	0.00075	0.00888	0.0	1382.0	3545.0000000000005	3545.0000000000005	0	0	1	-29.999999999999996	29.999999999999996								
	1937	7261	0.00016	0.00152	0.0	1645.0	20667.0	20667.0	0	0	1	-29.999999999999996	29.999999999999996								
	1937	5479	0.00019	0.00163	0.0	1711.0	19249.0	19249.0	0	0	1	-29.999999999999996	29.999999999999996								
	5473	7261	0.00015	0.0016	0.0	1547.0	19656.0	19656.0	0	0	1	-29.999999999999996	29.999999999999996								
	5473	5479	0.00015	0.00183	0.0	1645.0	17204.0	17204.0	0	0	1	-29.999999999999996	29.999999999999996								
	3648	3290	0.00121	0.01426	0.0	1415.0	2208.0	2208.0	0	0	1	-29.999999999999996	29.999999999999996								
	3648	5523	0.00116	0.01456	0.0	1448.0	2163.0	2163.0	0	0	1	-29.999999999999996	29.999999999999996								
	451	144	0.00068	0.00727	0.0	1777.0	4327.0	4327.0	0	0	1	-29.999999999999996	29.999999999999996								
	451	1601	0.0007	0.00734	0.0	1876.0000000000002	4285.0	4285.0	0	0	1	-29.999999999999996	29.999999999999996								
	7898	144	0.00076	0.00712	0.0	1580.0	4412.0	4412.0	0	0	1	-29.999999999999996	29.999999999999996								
	7898	1601	0.0008	0.00719	0.0	1909.0	4367.0	4367.0	0	0	1	-29.999999999999996	29.999999999999996								
	2105	1582	0.0002	0.0022	0.0	1218.0	14299.0	14299.0	0	0	1	-29.999999999999996	29.999999999999996								
	2105	7416	0.0002	0.0022	0.0	1251.0	14299.0	14299.0	0	0	1	-29.999999999999996	29.999999999999996								
	270	2046	0.000205	0.00215	0.0	1415.0	14626.0	14626.0	0	0	1	-29.999999999999996	29.999999999999996								
	270	7416	0.000205	0.00215	0.0	1448.0	14626.0	14626.0	0	0	1	-29.999999999999996	29.999999999999996								
	5938	8433	0.00053	0.00589	0.0	1316.0	5342.0	5342.0	0	0	1	-29.999999999999996	29.999999999999996								
	5938	816	0.00046	0.00675	0.0	1119.0	4669.0	4669.0	0	0	1	-29.999999999999996	29.999999999999996								
	8539	8433	0.00054	0.00577	0.0	1316.0	5451.0	5451.0	0	0	1	-29.999999999999996	29.999999999999996								
	8539	816	0.00045	0.00625	0.0	1086.0	5041.0	5041.0	0	0	1	-29.999999999999996	29.999999999999996								
	1654	1544	0.00275	0.02752	0.0	1382.0	1596.0	1596.0	0	0	1	-29.999999999999996	29.999999999999996								
	1654	7674	0.00184	0.01515	0.0	1316.0	2891.0	2891.0	0	0	1	-29.999999999999996	29.999999999999996								
	2323	4150	0.00438	0.02432	0.0	1279.0	1279.0	1279.0	0	0	1	-29.999999999999996	29.999999999999996								
	2323	599	0.0043	0.01949	0.0	1583.0	1583.0	1583.0	0	0	1	-29.999999999999996	29.999999999999996								
	8376	6999	0.00033	0.00269	0.0	1218.0	16279.0	16279.0	0	0	1	-29.999999999999996	29.999999999999996								
	8376	4903	0.00243	0.01904	0.0	1119.0	2299.0	2299.0	0	0	1	-29.999999999999996	29.999999999999996								
	942	6999	0.00034	0.00263	0.0	1119.0	16637.0	16637.0	0	0	1	-29.999999999999996	29.999999999999996								
	942	4903	0.00248	0.01864	0.0	1086.0	2347.0	2347.0	0	0	1	-29.999999999999996	29.999999999999996								
	6754	6190	0.00122	0.01249	0.0	986.9999999999999	2518.0	2518.0	0	0	1	-29.999999999999996	29.999999999999996								
	6754	4055	0.00106	0.01031	0.0	1053.0	3048.0	3048.0	0	0	1	-29.999999999999996	29.999999999999996								
	3313	6190	0.00119	0.01273	0.0	986.9999999999999	2471.0	2471.0	0	0	1	-29.999999999999996	29.999999999999996								
	3313	4055	0.00108	0.01009	0.0	1086.0	3113.0	3113.0	0	0	1	-29.999999999999996	29.999999999999996								
	1383	4401	0.001039	0.013711	0.0	2298.0	2298.0	2298.0	0	0	1	-29.999999999999996	29.999999999999996								
	1383	5145	0.00114	0.011409	0.0	2755.0	2755.0	2755.0	0	0	1	-29.999999999999996	29.999999999999996								
	7851	5878	0.001021	0.013969	0.0	2256.0	2256.0	2256.0	0	0	1	-29.999999999999996	29.999999999999996								
	7851	5145	0.001169	0.011159	0.0	2816.0	2816.0	2816.0	0	0	1	-29.999999999999996	29.999999999999996								
	8001	8201	0.0	0.000271	0.0	116558.99999999999	116558.99999999999	116558.99999999999	0	0	1	-29.999999999999996	29.999999999999996								
	2322	8201	0.0	0.000271	0.0	116558.99999999999	116558.99999999999	116558.99999999999	0	0	1	-29.999999999999996	29.999999999999996								
	843	154	0.009372	0.035702	0.0	856.0	856.0	856.0	0	0	1	-29.999999999999996	29.999999999999996								
	843	3598	0.029157	0.103686	0.0	294.0	294.0	294.0	0	0	1	-29.999999999999996	29.999999999999996								
	529	5527	0.00065	0.00673	0.0	1514.0	4672.0	4672.0	0	0	1	-29.999999999999996	29.999999999999996								
	529	4164	0.00066	0.00658	0.0	1678.0	4777.0	4777.0	0	0	1	-29.999999999999996	29.999999999999996								
	3529	2487	0.000969	0.006021	0.0	553.0	5180.0	5180.0	0	0	1	-29.999999999999996	29.999999999999996								
	3529	4167	0.00099	0.005901	0.0	381.0	5280.0	5280.0	0	0	1	-29.999999999999996	29.999999999999996								
	1162	8598	0.00088	0.006599	0.0	4745.0	4745.0	4745.0	0	0	1	-29.999999999999996	29.999999999999996								
	1162	5325	0.00086	0.006729	0.0	495.0	4657.0	4657.0	0	0	1	-29.999999999999996	29.999999999999996								
	8690	3277	9.0e-5	0.00077	0.0	1711.0	40746.0	40746.0	0	0	1	-29.999999999999996	29.999999999999996								
	8690	4226	9.0e-5	0.00078	0.0	1580.0	40230.0	40230.0	0	0	1	-29.999999999999996	29.999999999999996								
	4922	3277	8.0e-5	0.00082	0.0	1481.0	38340.0	38340.0	0	0	1	-29.999999999999996	29.999999999999996								
	4922	7617	8.0e-5	0.00076	0.0	1251.0	41334.0	41334.0	0	0	1	-29.999999999999996	29.999999999999996								
	6759	5527	9.0e-5	0.00074	0.0	1613.0	42374.0	42374.0	0	0	1	-29.999999999999996	29.999999999999996								
	6759	4226	9.0e-5	0.00073	0.0	1251.0	42946.0	42946.0	0	0	1	-29.999999999999996	29.999999999999996								
	4088	2487	0.00062	0.003781	0.0	8245.0	8245.0	8245.0	0	0	1	-29.999999999999996	29.999999999999996								
	4088	782	0.000599	0.0035	0.0	553.0	8896.0	8896.0	0	0	1	-29.999999999999996	29.999999999999996								
	6871	8598	0.00064	0.00274	0.0	11227.0	11227.0	11227.0	0	0	1	-29.999999999999996	29.999999999999996								
	6871	1346	0.000651	0.00268	0.0	610.0	11454.0	11454.0	0	0	1	-29.999999999999996	29.999999999999996								
	6813	1369	0.00055	0.00685	0.0	1777.0	4597.0	4597.0	0	0	1	-29.999999999999996	29.999999999999996								
	6813	376	0.00061	0.00639	0.0	1843.0	4921.0	4921.0	0	0	1	-29.999999999999996	29.999999999999996								
	6019	5527	0.00042	0.00523	0.0	1514.0	6021.0	6021.0	0	0	1	-29.999999999999996	29.999999999999996								
	6019	8334	0.00045	0.00605	0.0	1481.0	5207.0	5207.0	0	0	1	-29.999999999999996	29.999999999999996								
	5693	3277	0.0003	0.00228	0.0	1448.0	13736.000000000002	13736.000000000002	0	0	1	-29.999999999999996	29.999999999999996								
	5693	8899	0.00026	0.00264	0.0	1218.0	11908.0	11908.0	0	0	1	-29.999999999999996	29.999999999999996								
	3355	9230	0.00536	0.03568	0.0	553.0	876.0	876.0	0	0	1	-29.999999999999996	29.999999999999996								
...
];

%%-----  OPF Data  -----%%
%% cost data
%    1    startup    shutdown    n    x1    y1    ...    xn    yn
%    2    startup    shutdown    n    c(n-1)    ...    c0
mpc.gencost = [
	2	0.0	0.0	2	48.144896	0.0
	2	0.0	0.0	2	33.752152	0.0
	2	0.0	0.0	2	18.944562	0.0
	2	0.0	0.0	2	32.963567	0.0
	2	0.0	0.0	2	34.582172	0.0
	2	0.0	0.0	2	102.123377	0.0
	2	0.0	0.0	2	27.491952	0.0
	2	0.0	0.0	2	106.12193800000001	0.0
	2	0.0	0.0	2	42.422147	0.0
	2	0.0	0.0	2	19.547479	0.0
	2	0.0	0.0	2	19.340722	0.0
	2	0.0	0.0	2	27.847851000000002	0.0
	2	0.0	0.0	2	16.555469	0.0
	2	0.0	0.0	2	25.372493	0.0
	2	0.0	0.0	2	26.375422	0.0
	2	0.0	0.0	2	14.224446	0.0
	2	0.0	0.0	2	41.806983	0.0
	2	0.0	0.0	2	32.631964	0.0
	2	0.0	0.0	2	24.120319	0.0
	2	0.0	0.0	2	20.196291	0.0
	2	0.0	0.0	2	67.893274	0.0
	2	0.0	0.0	2	40.690715	0.0
	2	0.0	0.0	2	24.756254	0.0
	2	0.0	0.0	2	32.534667	0.0
	2	0.0	0.0	2	31.107941	0.0
	2	0.0	0.0	2	36.105459	0.0
	2	0.0	0.0	2	111.47265600000001	0.0
	2	0.0	0.0	2	22.223030000000005	0.0
	2	0.0	0.0	2	9.538301	0.0
	2	0.0	0.0	2	19.957222	0.0
	2	0.0	0.0	2	19.521714	0.0
	2	0.0	0.0	2	17.53672	0.0
	2	0.0	0.0	2	50.147209	0.0
	2	0.0	0.0	2	20.161061	0.0
	2	0.0	0.0	2	30.649135	0.0
	2	0.0	0.0	2	32.216573	0.0
	2	0.0	0.0	2	5.143579	0.0
	2	0.0	0.0	2	28.608411	0.0
	2	0.0	0.0	2	47.435671000000006	0.0
	2	0.0	0.0	2	24.722854	0.0
	2	0.0	0.0	2	114.45832300000001	0.0
	2	0.0	0.0	2	62.457256	0.0
	2	0.0	0.0	2	23.320554	0.0
	2	0.0	0.0	2	31.109769000000004	0.0
	2	0.0	0.0	2	28.71593	0.0
	2	0.0	0.0	2	34.855361	0.0
	2	0.0	0.0	2	7.046649	0.0
	2	0.0	0.0	2	24.293749	0.0
	2	0.0	0.0	2	23.344146000000002	0.0
	2	0.0	0.0	2	17.792717	0.0
	2	0.0	0.0	2	26.890752	0.0
	2	0.0	0.0	2	37.737199	0.0
	2	0.0	0.0	2	38.039292	0.0
	2	0.0	0.0	2	29.726025	0.0
	2	0.0	0.0	2	41.536201	0.0
	2	0.0	0.0	2	46.002594	0.0
	2	0.0	0.0	2	18.286323	0.0
	2	0.0	0.0	2	41.665073	0.0
	2	0.0	0.0	2	30.265444	0.0
	2	0.0	0.0	2	45.015218999999995	0.0
	2	0.0	0.0	2	31.330953	0.0
	2	0.0	0.0	2	15.386487	0.0
	2	0.0	0.0	2	101.914927	0.0
	2	0.0	0.0	2	32.514558	0.0
	2	0.0	0.0	2	36.29477	0.0
	2	0.0	0.0	2	24.807489	0.0
	2	0.0	0.0	2	23.295725	0.0
	2	0.0	0.0	2	31.589696	0.0
	2	0.0	0.0	2	9.952051	0.0
	2	0.0	0.0	2	37.954064	0.0
	2	0.0	0.0	2	48.191448	0.0
	2	0.0	0.0	2	37.711424	0.0
	2	0.0	0.0	2	10.804978000000002	0.0
	2	0.0	0.0	2	28.033588	0.0
	2	0.0	0.0	2	27.152413000000003	0.0
	2	0.0	0.0	2	24.325875	0.0
	2	0.0	0.0	2	21.823998000000003	0.0
	2	0.0	0.0	2	40.469758	0.0
	2	0.0	0.0	2	28.593272	0.0
	2	0.0	0.0	2	24.551931	0.0
	2	0.0	0.0	2	26.129224	0.0
	2	0.0	0.0	2	33.053251	0.0
	2	0.0	0.0	2	26.278186	0.0
	2	0.0	0.0	2	40.651028	0.0
	2	0.0	0.0	2	87.617497	0.0
	2	0.0	0.0	2	44.138695	0.0
	2	0.0	0.0	2	29.848214	0.0
	2	0.0	0.0	2	30.733565	0.0
	2	0.0	0.0	2	41.482425000000006	0.0
	2	0.0	0.0	2	55.459703	0.0
	2	0.0	0.0	2	26.505085	0.0
	2	0.0	0.0	2	15.670212	0.0
	2	0.0	0.0	2	36.975457	0.0
	2	0.0	0.0	2	15.242647	0.0
	2	0.0	0.0	2	16.025704	0.0
	2	0.0	0.0	2	37.55691	0.0
	2	0.0	0.0	2	117.35607200000001	0.0
	2	0.0	0.0	2	26.774912	0.0
	2	0.0	0.0	2	31.390872	0.0
	2	0.0	0.0	2	52.037941000000004	0.0
	2	0.0	0.0	2	44.179903	0.0
	2	0.0	0.0	2	42.501955	0.0
	2	0.0	0.0	2	28.316382	0.0
	2	0.0	0.0	2	34.908855	0.0
	2	0.0	0.0	2	15.814239	0.0
	2	0.0	0.0	2	25.496477	0.0
	2	0.0	0.0	2	104.731813	0.0
	2	0.0	0.0	2	20.270435	0.0
	2	0.0	0.0	2	45.93052500000001	0.0
	2	0.0	0.0	2	7.378171	0.0
	2	0.0	0.0	2	20.668034	0.0
	2	0.0	0.0	2	35.359581	0.0
	2	0.0	0.0	2	107.620093	0.0
	2	0.0	0.0	2	37.337555	0.0
	2	0.0	0.0	2	17.315011	0.0
	2	0.0	0.0	2	16.23562	0.0
	2	0.0	0.0	2	30.604601	0.0
	2	0.0	0.0	2	28.363783000000005	0.0
	2	0.0	0.0	2	16.0005	0.0
	2	0.0	0.0	2	20.927762	0.0
	2	0.0	0.0	2	20.734171	0.0
	2	0.0	0.0	2	21.919716000000005	0.0
	2	0.0	0.0	2	28.633061	0.0
	2	0.0	0.0	2	31.847313	0.0
	2	0.0	0.0	2	28.689607000000002	0.0
	2	0.0	0.0	2	32.095756	0.0
	2	0.0	0.0	2	12.590748	0.0
	2	0.0	0.0	2	6.192791	0.0
	2	0.0	0.0	2	26.395841	0.0
	2	0.0	0.0	2	39.396239	0.0
	2	0.0	0.0	2	47.11895100000001	0.0
	2	0.0	0.0	2	7.607693	0.0
	2	0.0	0.0	2	20.753305	0.0
	2	0.0	0.0	2	7.033043	0.0
	2	0.0	0.0	2	47.432749	0.0
	2	0.0	0.0	2	43.641911	0.0
	2	0.0	0.0	2	27.601252	0.0
	2	0.0	0.0	2	120.258328	0.0
	2	0.0	0.0	2	38.083093	0.0
	2	0.0	0.0	2	16.412766	0.0
	2	0.0	0.0	2	24.081564	0.0
	2	0.0	0.0	2	41.329283	0.0
	2	0.0	0.0	2	27.329787000000003	0.0
	2	0.0	0.0	2	14.754364	0.0
	2	0.0	0.0	2	46.438736	0.0
	2	0.0	0.0	2	19.898489	0.0
	2	0.0	0.0	2	43.71611800000001	0.0
	2	0.0	0.0	2	22.551616	0.0
	2	0.0	0.0	2	56.07988	0.0
	2	0.0	0.0	2	32.053825	0.0
	2	0.0	0.0	2	27.044824	0.0
	2	0.0	0.0	2	27.50963	0.0
	2	0.0	0.0	2	22.569503	0.0
	2	0.0	0.0	2	19.401918	0.0
	2	0.0	0.0	2	37.494446	0.0
	2	0.0	0.0	2	19.511724	0.0
	2	0.0	0.0	2	15.775384000000003	0.0
	2	0.0	0.0	2	31.825257	0.0
	2	0.0	0.0	2	108.230335	0.0
	2	0.0	0.0	2	29.173886	0.0
	2	0.0	0.0	2	34.373029	0.0
	2	0.0	0.0	2	47.096869	0.0
	2	0.0	0.0	2	30.927221	0.0
	2	0.0	0.0	2	34.476474	0.0
	2	0.0	0.0	2	17.075049	0.0
	2	0.0	0.0	2	41.084275	0.0
	2	0.0	0.0	2	36.997549	0.0
	2	0.0	0.0	2	47.161573	0.0
	2	0.0	0.0	2	9.834682	0.0
	2	0.0	0.0	2	53.715422	0.0
	2	0.0	0.0	2	34.061291	0.0
	2	0.0	0.0	2	25.25541	0.0
	2	0.0	0.0	2	55.8928	0.0
	2	0.0	0.0	2	19.899324	0.0
	2	0.0	0.0	2	31.421517000000005	0.0
	2	0.0	0.0	2	18.958013	0.0
	2	0.0	0.0	2	23.103282	0.0
	2	0.0	0.0	2	40.866196	0.0
	2	0.0	0.0	2	31.300609	0.0
	2	0.0	0.0	2	12.799906000000002	0.0
	2	0.0	0.0	2	32.800816	0.0
	2	0.0	0.0	2	27.557401	0.0
	2	0.0	0.0	2	33.259257	0.0
	2	0.0	0.0	2	35.55761	0.0
	2	0.0	0.0	2	26.911611000000004	0.0
	2	0.0	0.0	2	39.014432	0.0
	2	0.0	0.0	2	1.07185	0.0
	2	0.0	0.0	2	25.982049000000004	0.0
	2	0.0	0.0	2	8.151955	0.0
	2	0.0	0.0	2	20.162431	0.0
	2	0.0	0.0	2	33.135441	0.0
	2	0.0	0.0	2	55.60366200000001	0.0
	2	0.0	0.0	2	118.220193	0.0
	2	0.0	0.0	2	11.36738	0.0
	2	0.0	0.0	2	33.10344	0.0
	2	0.0	0.0	2	47.93440400000001	0.0
	2	0.0	0.0	2	22.55065	0.0
	2	0.0	0.0	2	18.177738	0.0
	2	0.0	0.0	2	43.358057	0.0
	2	0.0	0.0	2	41.928142	0.0
...
];

